4
step: 1  T=      331.220K  Ek=     0.171254  Ep=     1.683773  E_gap=    10.192398  Err=       0.0000000000000000  time_stamp= 1700802124.6620
 O        -0.64508         0.00002         0.00013         0.00787        -0.00045         0.00030         8.67612         0.02008        -0.00224        -0.51651
 C         0.67512        -0.00012        -0.00006        -0.01081        -0.00189        -0.00165        -9.11787        -0.00398         0.00060         0.46595
H         1.09839         1.04009        -0.00116         0.01240         0.01968         0.00742         0.20139        -1.21688         0.00141         0.02532
H         1.09629        -1.03900        -0.00015        -0.00858         0.00992         0.00745         0.24036         1.20078         0.00023         0.02523
4
step: 2  T=      362.701K  Ek=     0.187531  Ep=     1.665003  E_gap=    10.205063  Err=       0.0000000000000000  time_stamp= 1700802125.1798
 O        -0.64426        -0.00002         0.00016         0.00840        -0.00044         0.00030         8.77420         0.05030        -0.00654        -0.51554
 C         0.67400        -0.00031        -0.00023        -0.01154        -0.00189        -0.00165        -9.21561        -0.00979         0.01220         0.46581
H         1.09964         1.04200        -0.00042         0.01258         0.01851         0.00742         0.17519        -1.23254        -0.00222         0.02503
H         1.09544        -1.03795         0.00059        -0.00834         0.01106         0.00745         0.26623         1.19203        -0.00344         0.02469
4
step: 3  T=      397.195K  Ek=     0.205366  Ep=     1.644557  E_gap=    10.219808  Err=       0.0000000000000000  time_stamp= 1700802125.6753
 O        -0.64340        -0.00007         0.00019         0.00893        -0.00044         0.00030         8.89882         0.08223        -0.00880        -0.51446
 C         0.67281        -0.00050        -0.00039        -0.01229        -0.00189        -0.00165        -9.34285        -0.01225         0.01985         0.46611
H         1.10091         1.04380         0.00033         0.01274         0.01732         0.00742         0.14971        -1.25255        -0.00490         0.02449
H         1.09462        -1.03679         0.00134        -0.00807         0.01220         0.00745         0.29431         1.18257        -0.00614         0.02386
4
step: 4  T=      434.868K  Ek=     0.224844  Ep=     1.622490  E_gap=    10.234133  Err=       0.0000000000000000  time_stamp= 1700802126.1344
 O        -0.64248        -0.00011         0.00022         0.00947        -0.00043         0.00030         9.03718         0.11393        -0.01045        -0.51343
 C         0.67154        -0.00069        -0.00056        -0.01304        -0.00189        -0.00164        -9.48439        -0.00914         0.02642         0.46688
H         1.10219         1.04547         0.00107         0.01287         0.01611         0.00741         0.12320        -1.27711        -0.00738         0.02371
H         1.09383        -1.03551         0.00208        -0.00778         0.01333         0.00744         0.32401         1.17233        -0.00859         0.02284
4
step: 5  T=      475.841K  Ek=     0.246029  Ep=     1.598780  E_gap=    10.247340  Err=       0.0000000000000000  time_stamp= 1700802126.5979
 O        -0.64150        -0.00015         0.00025         0.01002        -0.00043         0.00030         9.17747         0.14420        -0.01331        -0.51246
 C         0.67020        -0.00088        -0.00072        -0.01381        -0.00189        -0.00164        -9.62578         0.00069         0.03555         0.46779
H         1.10348         1.04702         0.00181         0.01297         0.01487         0.00740         0.09375        -1.30619        -0.01055         0.02282
H         1.09307        -1.03412         0.00282        -0.00745         0.01444         0.00743         0.35455         1.16131        -0.01169         0.02185
4
step: 1  T=      331.220K  Ek=     0.171254  Ep=     1.683773  E_gap=    10.192398  Err=       0.0000000000000000  time_stamp= 1700802320.3321
 O        -0.64508         0.00002         0.00013         0.00787        -0.00045         0.00030         8.67612         0.02008        -0.00224        -0.51651
 C         0.67512        -0.00012        -0.00006        -0.01081        -0.00189        -0.00165        -9.11787        -0.00398         0.00060         0.46595
H         1.09839         1.04009        -0.00116         0.01240         0.01968         0.00742         0.20139        -1.21688         0.00141         0.02532
H         1.09629        -1.03900        -0.00015        -0.00858         0.00992         0.00745         0.24036         1.20078         0.00023         0.02523
4
step: 2  T=      362.701K  Ek=     0.187531  Ep=     1.665003  E_gap=    10.205063  Err=       0.0000000000000000  time_stamp= 1700802320.7668
 O        -0.64426        -0.00002         0.00016         0.00840        -0.00044         0.00030         8.77420         0.05030        -0.00654        -0.51554
 C         0.67400        -0.00031        -0.00023        -0.01154        -0.00189        -0.00165        -9.21561        -0.00979         0.01220         0.46581
H         1.09964         1.04200        -0.00042         0.01258         0.01851         0.00742         0.17519        -1.23254        -0.00222         0.02503
H         1.09544        -1.03795         0.00059        -0.00834         0.01106         0.00745         0.26623         1.19203        -0.00344         0.02469
4
step: 3  T=      397.195K  Ek=     0.205366  Ep=     1.644557  E_gap=    10.219808  Err=       0.0000000000000000  time_stamp= 1700802321.2136
 O        -0.64340        -0.00007         0.00019         0.00893        -0.00044         0.00030         8.89882         0.08223        -0.00880        -0.51446
 C         0.67281        -0.00050        -0.00039        -0.01229        -0.00189        -0.00165        -9.34285        -0.01225         0.01985         0.46611
H         1.10091         1.04380         0.00033         0.01274         0.01732         0.00742         0.14971        -1.25255        -0.00490         0.02449
H         1.09462        -1.03679         0.00134        -0.00807         0.01220         0.00745         0.29431         1.18257        -0.00614         0.02386
4
step: 4  T=      434.868K  Ek=     0.224844  Ep=     1.622490  E_gap=    10.234133  Err=       0.0000000000000000  time_stamp= 1700802321.6874
 O        -0.64248        -0.00011         0.00022         0.00947        -0.00043         0.00030         9.03718         0.11393        -0.01045        -0.51343
 C         0.67154        -0.00069        -0.00056        -0.01304        -0.00189        -0.00164        -9.48439        -0.00914         0.02642         0.46688
H         1.10219         1.04547         0.00107         0.01287         0.01611         0.00741         0.12320        -1.27711        -0.00738         0.02371
H         1.09383        -1.03551         0.00208        -0.00778         0.01333         0.00744         0.32401         1.17233        -0.00859         0.02284
4
step: 5  T=      475.841K  Ek=     0.246029  Ep=     1.598780  E_gap=    10.247340  Err=       0.0000000000000000  time_stamp= 1700802322.1644
 O        -0.64150        -0.00015         0.00025         0.01002        -0.00043         0.00030         9.17747         0.14420        -0.01331        -0.51246
 C         0.67020        -0.00088        -0.00072        -0.01381        -0.00189        -0.00164        -9.62578         0.00069         0.03555         0.46779
H         1.10348         1.04702         0.00181         0.01297         0.01487         0.00740         0.09375        -1.30619        -0.01055         0.02282
H         1.09307        -1.03412         0.00282        -0.00745         0.01444         0.00743         0.35455         1.16131        -0.01169         0.02185
4
step: 1  T=      331.220K  Ek=     0.171254  Ep=     1.683773  E_gap=    10.192398  Err=       0.0000000000000000  time_stamp= 1700802360.1681
 O        -0.64508         0.00002         0.00013         0.00787        -0.00045         0.00030         8.67612         0.02008        -0.00224        -0.51651
 C         0.67512        -0.00012        -0.00006        -0.01081        -0.00189        -0.00165        -9.11787        -0.00398         0.00060         0.46595
H         1.09839         1.04009        -0.00116         0.01240         0.01968         0.00742         0.20139        -1.21688         0.00141         0.02532
H         1.09629        -1.03900        -0.00015        -0.00858         0.00992         0.00745         0.24036         1.20078         0.00023         0.02523
4
step: 2  T=      362.701K  Ek=     0.187531  Ep=     1.665003  E_gap=    10.205063  Err=       0.0000000000000000  time_stamp= 1700802360.5530
 O        -0.64426        -0.00002         0.00016         0.00840        -0.00044         0.00030         8.77420         0.05030        -0.00654        -0.51554
 C         0.67400        -0.00031        -0.00023        -0.01154        -0.00189        -0.00165        -9.21561        -0.00979         0.01220         0.46581
H         1.09964         1.04200        -0.00042         0.01258         0.01851         0.00742         0.17519        -1.23254        -0.00222         0.02503
H         1.09544        -1.03795         0.00059        -0.00834         0.01106         0.00745         0.26623         1.19203        -0.00344         0.02469
4
step: 3  T=      397.195K  Ek=     0.205366  Ep=     1.644557  E_gap=    10.219808  Err=       0.0000000000000000  time_stamp= 1700802360.9645
 O        -0.64340        -0.00007         0.00019         0.00893        -0.00044         0.00030         8.89882         0.08223        -0.00880        -0.51446
 C         0.67281        -0.00050        -0.00039        -0.01229        -0.00189        -0.00165        -9.34285        -0.01225         0.01985         0.46611
H         1.10091         1.04380         0.00033         0.01274         0.01732         0.00742         0.14971        -1.25255        -0.00490         0.02449
H         1.09462        -1.03679         0.00134        -0.00807         0.01220         0.00745         0.29431         1.18257        -0.00614         0.02386
4
step: 4  T=      434.868K  Ek=     0.224844  Ep=     1.622490  E_gap=    10.234133  Err=       0.0000000000000000  time_stamp= 1700802361.4067
 O        -0.64248        -0.00011         0.00022         0.00947        -0.00043         0.00030         9.03718         0.11393        -0.01045        -0.51343
 C         0.67154        -0.00069        -0.00056        -0.01304        -0.00189        -0.00164        -9.48439        -0.00914         0.02642         0.46688
H         1.10219         1.04547         0.00107         0.01287         0.01611         0.00741         0.12320        -1.27711        -0.00738         0.02371
H         1.09383        -1.03551         0.00208        -0.00778         0.01333         0.00744         0.32401         1.17233        -0.00859         0.02284
4
step: 5  T=      475.841K  Ek=     0.246029  Ep=     1.598780  E_gap=    10.247340  Err=       0.0000000000000000  time_stamp= 1700802361.8527
 O        -0.64150        -0.00015         0.00025         0.01002        -0.00043         0.00030         9.17747         0.14420        -0.01331        -0.51246
 C         0.67020        -0.00088        -0.00072        -0.01381        -0.00189        -0.00164        -9.62578         0.00069         0.03555         0.46779
H         1.10348         1.04702         0.00181         0.01297         0.01487         0.00740         0.09375        -1.30619        -0.01055         0.02282
H         1.09307        -1.03412         0.00282        -0.00745         0.01444         0.00743         0.35455         1.16131        -0.01169         0.02185
