4
step: 1  T=      476.399K  Ek=     0.246317  Ep=     2.136498  E_gap=    12.751588  Err=       0.0000000000000000  time_stamp= 1672955487.1125
 B        -0.01531         0.00284         0.00204        -0.00144         0.00704         0.00508         2.28074        -0.34937        -0.16488         0.28919
H         1.38582        -0.01445        -0.00658        -0.00778        -0.03592        -0.01633        -4.58242         0.10771         0.05767        -0.10485
H        -0.61597         1.01976        -0.00767        -0.00131        -0.02857        -0.01908         1.13619        -1.54857         0.05306        -0.08862
H        -0.60566        -1.03578        -0.00767         0.02451        -0.01102        -0.01908         1.16549         1.79023         0.05416        -0.09572
4
step: 2  T=      569.720K  Ek=     0.294568  Ep=     2.088248  E_gap=    12.748726  Err=       0.0000000000000000  time_stamp= 1672955487.4829
 B        -0.01572         0.00563         0.00406        -0.00060         0.00686         0.00499         2.39690        -0.70425        -0.32656         0.29006
H         1.37920        -0.02873        -0.01306        -0.02524        -0.03531        -0.01600        -4.52979         0.21519         0.11519        -0.10583
H        -0.61562         1.00714        -0.01526         0.00285        -0.03406        -0.01879         1.03423        -1.30942         0.10341        -0.08507
H        -0.59496        -1.03882        -0.01526         0.02886        -0.00415        -0.01877         1.09866         1.79848         0.10796        -0.09916
4
step: 3  T=      728.562K  Ek=     0.376696  Ep=     2.006120  E_gap=    12.762677  Err=       0.0000000000000000  time_stamp= 1672955487.8338
 B        -0.01579         0.00832         0.00604         0.00028         0.00654         0.00485         2.52249        -1.06271        -0.48262         0.29123
H         1.36563        -0.04269        -0.01938        -0.04240        -0.03431        -0.01546        -4.41697         0.32223         0.17233        -0.10657
H        -0.61369         0.99251        -0.02270         0.00654        -0.03853        -0.01831         0.89389        -1.01358         0.14979        -0.08183
H        -0.58258        -1.03910        -0.02269         0.03290         0.00265        -0.01827         1.00059         1.75405         0.16049        -0.10283
4
step: 4  T=      939.595K  Ek=     0.485808  Ep=     1.897008  E_gap=    12.793529  Err=       0.0000000000000000  time_stamp= 1672955488.1839
 B        -0.01550         0.01087         0.00794         0.00120         0.00610         0.00466         2.64782        -1.41974        -0.63019         0.29272
H         1.34529        -0.05617        -0.02543        -0.05899        -0.03289        -0.01470        -4.23318         0.42817         0.22862        -0.10705
H        -0.61039         0.97633        -0.02991         0.00963        -0.04177        -0.01767         0.71480        -0.66295         0.19086        -0.07892
H        -0.56865        -1.03669        -0.02987         0.03650         0.00918        -0.01757         0.87055         1.65453         0.21071        -0.10675
4
step: 5  T=     1184.696K  Ek=     0.612535  Ep=     1.770280  E_gap=    12.839280  Err=       0.0000000000000000  time_stamp= 1672955488.5339
 B        -0.01483         0.01321         0.00976         0.00217         0.00554         0.00441         2.75538        -1.76567        -0.76594         0.29459
H         1.31845        -0.06900        -0.03114        -0.07473        -0.03107        -0.01373        -3.96113         0.53155         0.28313        -0.10729
H        -0.60599         0.95911        -0.03683         0.01196        -0.04357        -0.01689         0.49845        -0.26292         0.22535        -0.07634
H        -0.55338        -1.03175        -0.03674         0.03955         0.01523        -0.01669         0.70729         1.49704         0.25746        -0.11095
4
step: 6  T=     1441.094K  Ek=     0.745103  Ep=     1.637713  E_gap=    12.896002  Err=       0.0000000000000000  time_stamp= 1672955488.8819
 B        -0.01377         0.01530         0.01147         0.00316         0.00486         0.00412         2.81744        -2.08469        -0.88608         0.29686
H         1.28553        -0.08102        -0.03641        -0.08922        -0.02887        -0.01256        -3.57604         0.62978         0.33427        -0.10731
H        -0.60082         0.94148        -0.04341         0.01340        -0.04376        -0.01598         0.24935         0.17614         0.25237        -0.07413
H        -0.53702        -1.02452        -0.04322         0.04191         0.02055        -0.01563         0.50925         1.27877         0.29944        -0.11543
4
step: 7  T=     1681.532K  Ek=     0.869419  Ep=     1.513396  E_gap=    12.958369  Err=       0.0000000000000000  time_stamp= 1672955489.2453
 B        -0.01230         0.01709         0.01306         0.00417         0.00407         0.00379         2.79364        -2.35400        -0.98637         0.29959
H         1.24710        -0.09208        -0.04118        -0.10196        -0.02630        -0.01120        -3.04463         0.71853         0.37944        -0.10715
H        -0.59527         0.92411        -0.04961         0.01384        -0.04223        -0.01499        -0.02396         0.63758         0.27165        -0.07228
H        -0.51987        -1.01532        -0.04924         0.04344         0.02493        -0.01442         0.27494         0.99789         0.33528        -0.12015
4
step: 8  T=     1874.622K  Ek=     0.969254  Ep=     1.413561  E_gap=    13.020459  Err=       0.0000000000000000  time_stamp= 1672955489.6084
 B        -0.01044         0.01855         0.01450         0.00514         0.00319         0.00342         2.62992        -2.54417        -1.06234         0.30281
H         1.20399        -0.10205        -0.04537        -0.11231        -0.02343        -0.00968        -2.32539         0.79113         0.41478        -0.10690
H        -0.58975         0.90771        -0.05540         0.01321        -0.03893        -0.01393        -0.30827         1.09818         0.28394        -0.07083
H        -0.50228        -1.00458        -0.05475         0.04400         0.02811        -0.01310         0.00374         0.65486         0.36363        -0.12509
4
step: 9  T=     1985.910K  Ek=     1.026795  Ep=     1.356021  E_gap=    13.076714  Err=       0.0000000000000000  time_stamp= 1672955489.9696
 B        -0.00820         0.01964         0.01579         0.00601         0.00227         0.00304         2.26109        -2.62151        -1.10944         0.30654
H         1.15728        -0.11082        -0.04892        -0.11947        -0.02032        -0.00806        -1.37244         0.83800         0.43497        -0.10662
H        -0.58470         0.89298        -0.06075         0.01151        -0.03393        -0.01284        -0.58589         1.52910         0.29112        -0.06975
H        -0.48468        -0.99283        -0.05971         0.04345         0.02987        -0.01167        -0.30276         0.25441         0.38335        -0.13016
4
step: 10  T=     1981.041K  Ek=     1.024277  Ep=     1.358538  E_gap=    13.122819  Err=       0.0000000000000000  time_stamp= 1672955490.3352
 B        -0.00563         0.02036         0.01693         0.00671         0.00135         0.00264         1.62103        -2.55337        -1.12353         0.31074
H         1.10844        -0.11831        -0.05181        -0.12245        -0.01711        -0.00640        -0.14652         0.84683         0.43354        -0.10642
H        -0.58055         0.88058        -0.06567         0.00879        -0.02738        -0.01172        -0.83592         1.89868         0.29613        -0.06905
H        -0.46753        -0.98069        -0.06409         0.04168         0.03001        -0.01019        -0.63860        -0.19214         0.39386        -0.13526
4
step: 1  T=      285.126K  Ek=     0.147421  Ep=     2.071960  E_gap=    12.820981  Err=       0.0000000000000000  time_stamp= 1699035801.1706
B        -0.01377         0.00021         0.00065         0.00238         0.00053         0.00162         2.11211         0.03825        -0.05337         0.28904
H         1.37046        -0.00445        -0.00209        -0.04596        -0.01105        -0.00520        -4.45798         0.03390         0.01811        -0.10371
H        -0.61505         1.03169        -0.00244         0.00114         0.00085        -0.00608         1.21242        -1.76646         0.01771        -0.09207
H        -0.60772        -1.02949        -0.00244         0.01930         0.00452        -0.00608         1.13346         1.69431         0.01755        -0.09325
4
step: 2  T=      507.373K  Ek=     0.262332  Ep=     1.957049  E_gap=    12.898940  Err=       0.0000000000000000  time_stamp= 1699035802.2589
B        -0.01267         0.00042         0.00129         0.00312         0.00055         0.00159         2.03915         0.07759        -0.10567         0.28942
H         1.34866        -0.00884        -0.00416        -0.06273        -0.01086        -0.00510        -4.26630         0.06835         0.03667        -0.10375
H        -0.61366         1.03068        -0.00486         0.00574        -0.00589        -0.00598         1.19211        -1.75120         0.03484        -0.09142
H        -0.59913        -1.02639        -0.00486         0.02348         0.01084        -0.00598         1.03504         1.60526         0.03416        -0.09425
4
step: 3  T=      793.002K  Ek=     0.410014  Ep=     1.809367  E_gap=    13.001485  Err=       0.0000000000000000  time_stamp= 1699035803.3614
B        -0.01127         0.00065         0.00192         0.00384         0.00059         0.00155         1.94031         0.11822        -0.15698         0.29029
H         1.32030        -0.01313        -0.00617        -0.07860        -0.01055        -0.00493        -3.98222         0.10322         0.05500        -0.10371
H        -0.61045         1.02698        -0.00723         0.01022        -0.01248        -0.00582         1.13921        -1.68272         0.05180        -0.09104
H        -0.58895        -1.02082        -0.00723         0.02722         0.01673        -0.00583         0.90270         1.46128         0.05019        -0.09554
4
step: 4  T=     1118.983K  Ek=     0.578559  Ep=     1.640822  E_gap=    13.124924  Err=       0.0000000000000000  time_stamp= 1699035804.4772
B        -0.00960         0.00089         0.00253         0.00451         0.00064         0.00148         1.79053         0.16143        -0.20588         0.29142
H         1.28581        -0.01727        -0.00810        -0.09317        -0.01009        -0.00469        -3.57820         0.13785         0.07263        -0.10355
H        -0.60549         1.02070        -0.00952         0.01443        -0.01871        -0.00560         1.05220        -1.55990         0.06813        -0.09074
H        -0.57737        -1.01301        -0.00952         0.03038         0.02197        -0.00561         0.73547         1.26062         0.06513        -0.09713
4
step: 5  T=     1452.932K  Ek=     0.751224  Ep=     1.468157  E_gap=    13.264005  Err=       0.0000000000000000  time_stamp= 1699035805.6025
B        -0.00767         0.00116         0.00311         0.00511         0.00070         0.00140         1.55390         0.20700        -0.25087         0.29379
H         1.24580        -0.02120        -0.00992        -0.10589        -0.00951        -0.00438        -3.01256         0.17129         0.08850        -0.10363
H        -0.59892         1.01202        -0.01170         0.01824        -0.02435        -0.00531         0.92808        -1.37814         0.08357        -0.09097
H        -0.56465        -1.00326        -0.01172         0.03284         0.02632        -0.00534         0.53058         0.99986         0.07879        -0.09919
4
step: 6  T=     1752.694K  Ek=     0.906213  Ep=     1.313168  E_gap=    13.410291  Err=       0.0000000000000000  time_stamp= 1699035806.7150
B        -0.00551         0.00146         0.00365         0.00561         0.00079         0.00131         1.18472         0.25513        -0.28956         0.29719
H         1.20113        -0.02488        -0.01161        -0.11606        -0.00881        -0.00402        -2.23753         0.20135         0.10139        -0.10394
H        -0.59091         1.00123        -0.01377         0.02150        -0.02920        -0.00497         0.76470        -1.13592         0.09756        -0.09154
H        -0.55111        -0.99196        -0.01380         0.03444         0.02956        -0.00502         0.28812         0.67943         0.09061        -0.10171
4
step: 7  T=     1967.621K  Ek=     1.017339  Ep=     1.202042  E_gap=    13.550678  Err=       0.0000000000000000  time_stamp= 1699035807.8381
B        -0.00318         0.00179         0.00415         0.00594         0.00089         0.00120         0.62935         0.30473        -0.31910         0.30175
H         1.15300        -0.02825        -0.01314        -0.12276        -0.00800        -0.00362        -1.19882         0.22470         0.10929        -0.10459
H        -0.58173         0.98868        -0.01568         0.02406        -0.03300        -0.00458         0.56011        -0.83174         0.10963        -0.09247
H        -0.53711        -0.97962        -0.01574         0.03504         0.03147        -0.00466         0.00937         0.30231         0.10018        -0.10469
4
step: 8  T=     2043.945K  Ek=     1.056802  Ep=     1.162580  E_gap=    13.666553  Err=       0.0000000000000000  time_stamp= 1699035808.9585
B        -0.00077         0.00217         0.00461         0.00602         0.00101         0.00108        -0.16218         0.35335        -0.33625         0.30751
H         1.10297        -0.03127        -0.01451        -0.12488        -0.00712        -0.00321         0.14879         0.23656         0.10966        -0.10569
H        -0.57167         0.97484        -0.01743         0.02575        -0.03551        -0.00414         0.31409        -0.46673         0.11934        -0.09374
H        -0.52309        -0.96680        -0.01752         0.03452         0.03184        -0.00427        -0.30070        -0.12318         0.10725        -0.10808
4
step: 9  T=     1937.111K  Ek=     1.001564  Ep=     1.217818  E_gap=    13.748897  Err=       0.0000000000000000  time_stamp= 1699035810.0806
B         0.00163         0.00259         0.00502         0.00578         0.00114         0.00096        -1.21240         0.39643        -0.33805         0.31433
H         1.05314        -0.03394        -0.01571        -0.12118        -0.00623        -0.00281         1.81375         0.23127         0.10000        -0.10726
H        -0.56113         0.96028        -0.01899         0.02643        -0.03651        -0.00368         0.02997        -0.04673         0.12629        -0.09529
H        -0.50951        -0.95415        -0.01915         0.03275         0.03051        -0.00385        -0.63131        -0.58096         0.11176        -0.11178
4
step: 10  T=     1632.407K  Ek=     0.844020  Ep=     1.375362  E_gap=    13.807015  Err=       0.0000000000000000  time_stamp= 1699035811.2101
B         0.00386         0.00308         0.00538         0.00512         0.00129         0.00085        -2.48205         0.42601        -0.32328         0.32179
H         1.00606        -0.03625        -0.01675        -0.11051        -0.00539        -0.00246         3.72944         0.20426         0.07896        -0.10926
H        -0.55054         0.94564        -0.02037         0.02593        -0.03579        -0.00318        -0.28316         0.41511         0.13032        -0.09696
H        -0.49690        -0.94239        -0.02061         0.02968         0.02738        -0.00342        -0.96423        -1.04538         0.11399        -0.11558
4
step: 1  T=      639.705K  Ek=     0.330753  Ep=     2.187064  E_gap=    12.710137  Err=       0.0000000000000000  time_stamp= 1700770939.7465
B        -0.01580        -0.00227         0.00211        -0.00269        -0.00564         0.00525         2.16169         0.26479        -0.17175         0.28793
H         1.38516         0.01201        -0.00679        -0.00942         0.02987        -0.01687        -4.57125        -0.08940         0.05931        -0.10745
H        -0.60329         1.05068        -0.00793         0.03053         0.04784        -0.01971         1.20761        -2.01813         0.05658        -0.09312
H        -0.61241        -1.03830        -0.00793         0.00772        -0.01722        -0.01971         1.20195         1.84274         0.05586        -0.08736
4
step: 2  T=      637.332K  Ek=     0.329526  Ep=     2.188291  E_gap=    12.668420  Err=       0.0000000000000000  time_stamp= 1700770939.9192
B        -0.01672        -0.00451         0.00420        -0.00192        -0.00550         0.00516         2.16102         0.52138        -0.34295         0.28745
H         1.37789         0.02389        -0.01350        -0.02680         0.02935        -0.01653        -4.50834        -0.17821         0.11768        -0.11101
H        -0.59015         1.06827        -0.01577         0.03508         0.03967        -0.01938         1.17476        -2.24271         0.11400        -0.09389
H        -0.60840        -1.04378        -0.01577         0.01226        -0.01006        -0.01939         1.17257         1.89955         0.11127        -0.08255
4
step: 3  T=      714.037K  Ek=     0.369186  Ep=     2.148632  E_gap=    12.645907  Err=       0.0000000000000000  time_stamp= 1700770940.0769
B        -0.01733        -0.00667         0.00624        -0.00114        -0.00527         0.00500         2.16742         0.77025        -0.51131         0.28718
H         1.36372         0.03550        -0.02002        -0.04384         0.02850        -0.01597        -4.38687        -0.26624         0.17489        -0.11426
H        -0.57522         1.08242        -0.02343         0.03945         0.03078        -0.01883         1.10576        -2.40597         0.17114        -0.09484
H        -0.60260        -1.04635        -0.02344         0.01664        -0.00278        -0.01886         1.11369         1.90197         0.16528        -0.07808
4
step: 4  T=      866.685K  Ek=     0.448111  Ep=     2.069707  E_gap=    12.643457  Err=       0.0000000000000000  time_stamp= 1700770940.2329
B        -0.01764        -0.00873         0.00820        -0.00037        -0.00495         0.00479         2.16853         1.01194        -0.67443         0.28717
H         1.34282         0.04669        -0.02627        -0.06030         0.02733        -0.01520        -4.19664        -0.35304         0.23048        -0.11720
H        -0.55859         1.09289        -0.03083         0.04351         0.02138        -0.01808         1.00282        -2.50840         0.22702        -0.09601
H        -0.59509        -1.04600        -0.03085         0.02074         0.00441        -0.01813         1.02529         1.84949         0.21693        -0.07396
4
step: 5  T=     1085.139K  Ek=     0.561060  Ep=     1.956757  E_gap=    12.660261  Err=       0.0000000000000000  time_stamp= 1700770940.3900
B        -0.01763        -0.01063         0.01007         0.00040        -0.00455         0.00453         2.14729         1.24593        -0.82944         0.28748
H         1.31549         0.05735        -0.03218        -0.07588         0.02583        -0.01422        -3.92093        -0.43753         0.28356        -0.11983
H        -0.54042         1.09952        -0.03789         0.04711         0.01170        -0.01712         0.86695        -2.54903         0.28069        -0.09743
H        -0.58600        -1.04282        -0.03794         0.02446         0.01129        -0.01722         0.90669         1.74063         0.26519        -0.07022
4
step: 6  T=     1351.276K  Ek=     0.698664  Ep=     1.819154  E_gap=    12.693692  Err=       0.0000000000000000  time_stamp= 1700770940.5458
B        -0.01731        -0.01237         0.01182         0.00116        -0.00407         0.00421         2.08073         1.46950        -0.97259         0.28824
H         1.28214         0.06735        -0.03765        -0.09021         0.02401        -0.01305        -3.53549        -0.51770         0.33251        -0.12219
H        -0.52091         1.10225        -0.04452         0.05014         0.00199        -0.01595         0.69795        -2.52506         0.33115        -0.09915
H        -0.57553        -1.03698        -0.04462         0.02766         0.01764        -0.01613         0.75681         1.57325         0.30893        -0.06690
4
step: 7  T=     1637.994K  Ek=     0.846909  Ep=     1.670909  E_gap=    12.739721  Err=       0.0000000000000000  time_stamp= 1700770940.7023
B        -0.01670        -0.01389         0.01344         0.00188        -0.00351         0.00384         1.93852         1.67657        -1.09889         0.28961
H         1.24334         0.07656        -0.04262        -0.10282         0.02191        -0.01171        -3.00755        -0.59014         0.37476        -0.12434
H        -0.50032         1.10111        -0.05065         0.05246        -0.00751        -0.01461         0.49451        -2.43168         0.37722        -0.10120
H        -0.56388        -1.02871        -0.05084         0.03023         0.02325        -0.01489         0.57453         1.34525         0.34691        -0.06406
4
step: 8  T=     1908.604K  Ek=     0.986825  Ep=     1.530993  E_gap=    12.793514  Err=       0.0000000000000000  time_stamp= 1700770940.8584
B        -0.01581        -0.01517         0.01489         0.00252        -0.00288         0.00343         1.68225         1.85650        -1.20184         0.29173
H         1.19991         0.08487        -0.04701        -0.11306         0.01955        -0.01022        -2.29592        -0.64965         0.40644        -0.12637
H        -0.47896         1.09624        -0.05620         0.05394        -0.01651        -0.01310         0.25446        -2.26228         0.41755        -0.10359
H        -0.55135        -1.01839        -0.05653         0.03204         0.02787        -0.01351         0.35922         1.05543         0.37785        -0.06177
4
step: 9  T=     2117.555K  Ek=     1.094861  Ep=     1.422957  E_gap=    12.850022  Err=       0.0000000000000000  time_stamp= 1700770941.0154
B        -0.01468        -0.01619         0.01618         0.00305        -0.00220         0.00299         1.26746         1.99317        -1.27344         0.29476
H         1.15293         0.09219        -0.05079        -0.12015         0.01700        -0.00864        -1.35465        -0.68879         0.42227        -0.12839
H        -0.45718         1.08791        -0.06112         0.05443        -0.02471        -0.01145        -0.02437        -2.00924         0.45059        -0.10631
H        -0.53826        -1.00643        -0.06164         0.03297         0.03126        -0.01203         0.11156         0.70487         0.40058        -0.06006
4
step: 10  T=     2214.269K  Ek=     1.144866  Ep=     1.372952  E_gap=    12.904502  Err=       0.0000000000000000  time_stamp= 1700770941.1714
B        -0.01337        -0.01693         0.01729         0.00340        -0.00147         0.00254         0.65149         2.06523        -1.30480         0.29878
H         1.10383         0.09847        -0.05392        -0.12312         0.01436        -0.00704        -0.14362        -0.69809         0.41587        -0.13054
H        -0.43543         1.07649        -0.06536         0.05377        -0.03177        -0.00968        -0.34252        -1.66577         0.47465        -0.10927
H        -0.52498        -0.99339        -0.06615         0.03290         0.03321        -0.01048        -0.16535         0.29862         0.41428        -0.05897
