4
step: 1  T=      377.922K  Ek=     0.195401  Ep=     1.466852  E_gap=    13.373361  Err=       0.0000679536444716  time_stamp= 1672955578.6245
 B        -0.00094         0.00227         0.00069        -0.00227         0.00561         0.00171         0.38162        -0.30277        -0.05827         0.29122
H         1.21666        -0.01142        -0.00246         0.03684        -0.02839        -0.00612        -2.51033         0.08634         0.01978        -0.09592
H        -0.60622         1.01955        -0.00246        -0.01354        -0.02915        -0.00612         1.04991        -1.58373         0.01913        -0.09604
H        -0.60041        -1.03242        -0.00246         0.00105        -0.00261        -0.00612         1.07880         1.80016         0.01936        -0.09926
4
step: 2  T=      338.429K  Ek=     0.174981  Ep=     1.487071  E_gap=    13.310727  Err=       0.0000847012780916  time_stamp= 1672955578.9678
 B        -0.00182         0.00449         0.00137        -0.00209         0.00545         0.00168         0.64449        -0.58221        -0.11335         0.29121
H         1.22947        -0.02272        -0.00490         0.02681        -0.02791        -0.00601        -2.73158         0.16390         0.03913        -0.09540
H        -0.61083         1.00668        -0.00490        -0.00959        -0.03480        -0.00602         1.01036        -1.36839         0.03656        -0.09279
H        -0.59916        -1.03209        -0.00490         0.00518         0.00425        -0.00601         1.07673         1.78669         0.03765        -0.10303
4
step: 3  T=      328.681K  Ek=     0.169941  Ep=     1.492090  E_gap=    13.259654  Err=       0.0002312220655229  time_stamp= 1672955579.2921
 B        -0.00261         0.00663         0.00203        -0.00181         0.00520         0.00163         0.89704        -0.84896        -0.16554         0.29214
H         1.23811        -0.03375        -0.00727         0.01608        -0.02714        -0.00582        -2.87144         0.23610         0.05833        -0.09477
H        -0.61389         0.99171        -0.00728        -0.00588        -0.03953        -0.00585         0.92993        -1.10122         0.05224        -0.08880
H        -0.59626        -1.02902        -0.00727         0.00924         0.01096        -0.00584         1.04446         1.71408         0.05497        -0.10857
4
step: 4  T=      347.266K  Ek=     0.179551  Ep=     1.482432  E_gap=    13.228858  Err=       0.0002216829538338  time_stamp= 1672955579.6166
 B        -0.00327         0.00864         0.00268        -0.00145         0.00484         0.00156         1.15166        -1.12507        -0.21611         0.29376
H         1.24234        -0.04443        -0.00955         0.00494        -0.02609        -0.00556        -2.94487         0.31134         0.07779        -0.09423
H        -0.61553         0.97505        -0.00958        -0.00255        -0.04313        -0.00562         0.81128        -0.77999         0.06657        -0.08592
H        -0.59177        -1.02332        -0.00957         0.01312         0.01729        -0.00559         0.98193         1.59373         0.07175        -0.11361
4
step: 5  T=      388.906K  Ek=     0.201080  Ep=     1.460582  E_gap=    13.218756  Err=       0.0002711591627294  time_stamp= 1672955579.9395
 B        -0.00376         0.01050         0.00329        -0.00099         0.00439         0.00148         1.40695        -1.41109        -0.26388         0.29530
H         1.24206        -0.05463        -0.01172        -0.00635        -0.02475        -0.00522        -2.95158         0.39143         0.09694        -0.09383
H        -0.61593         0.95720        -0.01177         0.00026        -0.04540        -0.00534         0.65767        -0.40484         0.07924        -0.08493
H        -0.58576        -1.01519        -0.01175         0.01670         0.02307        -0.00529         0.88696         1.42449         0.08770        -0.11654
4
step: 6  T=      445.670K  Ek=     0.230429  Ep=     1.430972  E_gap=    13.222125  Err=       0.0002237470513654  time_stamp= 1672955580.2628
 B        -0.00406         0.01216         0.00386        -0.00044         0.00384         0.00138         1.65197        -1.67906        -0.30554         0.29637
H         1.23726        -0.06423        -0.01373        -0.01751        -0.02310        -0.00482        -2.88081         0.46897         0.11454        -0.09346
H        -0.61532         0.93873        -0.01385         0.00243        -0.04615        -0.00502         0.47135         0.01541         0.08924        -0.08485
H        -0.57841        -1.00487        -0.01380         0.01985         0.02808        -0.00493         0.75749         1.19468         0.10175        -0.11806
4
step: 7  T=      507.970K  Ek=     0.262641  Ep=     1.398333  E_gap=    13.233076  Err=       0.0001463566101862  time_stamp= 1672955580.5866
 B        -0.00412         0.01357         0.00439         0.00019         0.00320         0.00126         1.87658        -1.89412        -0.33885         0.29770
H         1.22805        -0.07311        -0.01557        -0.02825        -0.02118        -0.00435        -2.72551         0.53470         0.12981        -0.09302
H        -0.61399         0.92028        -0.01579         0.00382        -0.04523        -0.00466         0.25530         0.46243         0.09596        -0.08413
H        -0.56989        -0.99272        -0.01569         0.02244         0.03209        -0.00451         0.59363         0.89700         0.11308        -0.12056
4
step: 8  T=      565.871K  Ek=     0.292578  Ep=     1.367952  E_gap=    13.253242  Err=       0.0002381574866925  time_stamp= 1672955580.9133
 B        -0.00391         0.01472         0.00487         0.00089         0.00250         0.00114         2.07232        -2.04083        -0.36478         0.30041
H         1.21467        -0.08118        -0.01722        -0.03823        -0.01903        -0.00383        -2.48778         0.58707         0.14301        -0.09256
H        -0.61227         0.90255        -0.01758         0.00434        -0.04260        -0.00429         0.01784         0.91430         0.10006        -0.08249
H        -0.56046        -0.97920        -0.01741         0.02433         0.03484        -0.00407         0.39762         0.53946         0.12171        -0.12537
4
step: 9  T=      610.653K  Ek=     0.315732  Ep=     1.344431  E_gap=    13.285673  Err=       0.0002728994588686  time_stamp= 1672955581.2512
 B        -0.00341         0.01557         0.00530         0.00166         0.00176         0.00100         2.21953        -2.11880        -0.38510         0.30442
H         1.19747        -0.08834        -0.01864        -0.04714        -0.01670        -0.00326        -2.16768         0.63136         0.15450        -0.09216
H        -0.61052         0.88621        -0.01922         0.00395        -0.03826        -0.00390        -0.22396         1.34923         0.10272        -0.08105
H        -0.55042        -0.96485        -0.01894         0.02542         0.03614        -0.00359         0.17210         0.13820         0.12788        -0.13121
4
step: 10  T=      635.748K  Ek=     0.328707  Ep=     1.331346  E_gap=    13.326355  Err=       0.0002514221617471  time_stamp= 1672955581.5747
 B        -0.00259         0.01612         0.00567         0.00246         0.00100         0.00086         2.27939        -2.12007        -0.39933         0.30825
H         1.17695        -0.09454        -0.01982        -0.05465        -0.01421        -0.00265        -1.75302         0.67096         0.16346        -0.09179
H        -0.60911         0.87193        -0.02070         0.00266        -0.03234        -0.00350        -0.44648         1.74331         0.10451        -0.08095
H        -0.54012        -0.95029        -0.02028         0.02560         0.03584        -0.00309        -0.07989        -0.29420         0.13136        -0.13552
4
step: 1  T=      377.919K  Ek=     0.195399  Ep=     1.466852  E_gap=    13.373437  Err=       0.0000637617321830  time_stamp= 1699036461.7786
B        -0.00094         0.00227         0.00069        -0.00227         0.00561         0.00171         0.38160        -0.30277        -0.05827         0.29133
H         1.21666        -0.01142        -0.00246         0.03684        -0.02839        -0.00612        -2.51040         0.08634         0.01978        -0.09596
H        -0.60622         1.01955        -0.00246        -0.01354        -0.02915        -0.00612         1.04996        -1.58380         0.01913        -0.09608
H        -0.60041        -1.03242        -0.00246         0.00105        -0.00261        -0.00612         1.07884         1.80023         0.01936        -0.09929
4
step: 2  T=      338.429K  Ek=     0.174982  Ep=     1.487067  E_gap=    13.310715  Err=       0.0000855863918939  time_stamp= 1699036462.2689
B        -0.00182         0.00449         0.00137        -0.00209         0.00545         0.00168         0.64450        -0.58221        -0.11334         0.29119
H         1.22947        -0.02272        -0.00490         0.02681        -0.02791        -0.00601        -2.73152         0.16390         0.03913        -0.09539
H        -0.61083         1.00668        -0.00490        -0.00959        -0.03480        -0.00602         1.01032        -1.36833         0.03656        -0.09278
H        -0.59916        -1.03209        -0.00490         0.00518         0.00426        -0.00601         1.07670         1.78663         0.03765        -0.10302
4
step: 3  T=      328.684K  Ek=     0.169943  Ep=     1.492087  E_gap=    13.259583  Err=       0.0002264414176128  time_stamp= 1699036462.9147
B        -0.00261         0.00663         0.00203        -0.00181         0.00520         0.00163         0.89707        -0.84896        -0.16554         0.29202
H         1.23810        -0.03375        -0.00727         0.01608        -0.02714        -0.00582        -2.87134         0.23609         0.05833        -0.09473
H        -0.61389         0.99171        -0.00728        -0.00588        -0.03953        -0.00585         0.92986        -1.10112         0.05224        -0.08876
H        -0.59626        -1.02902        -0.00727         0.00924         0.01096        -0.00584         1.04440         1.71399         0.05497        -0.10853
4
step: 4  T=      347.268K  Ek=     0.179552  Ep=     1.482426  E_gap=    13.228810  Err=       0.0002183016290961  time_stamp= 1699036463.6981
B        -0.00327         0.00864         0.00268        -0.00145         0.00484         0.00156         1.15168        -1.12508        -0.21611         0.29368
H         1.24234        -0.04443        -0.00955         0.00494        -0.02609        -0.00556        -2.94487         0.31133         0.07779        -0.09421
H        -0.61553         0.97505        -0.00958        -0.00255        -0.04314        -0.00562         0.81127        -0.77998         0.06657        -0.08589
H        -0.59177        -1.02332        -0.00957         0.01312         0.01729        -0.00559         0.98192         1.59372         0.07175        -0.11358
4
step: 5  T=      388.911K  Ek=     0.201082  Ep=     1.460577  E_gap=    13.218785  Err=       0.0002820191655962  time_stamp= 1699036464.3287
B        -0.00376         0.01050         0.00329        -0.00099         0.00439         0.00148         1.40694        -1.41109        -0.26389         0.29534
H         1.24206        -0.05463        -0.01172        -0.00635        -0.02475        -0.00522        -2.95166         0.39144         0.09695        -0.09385
H        -0.61593         0.95720        -0.01177         0.00026        -0.04540        -0.00534         0.65772        -0.40491         0.07924        -0.08494
H        -0.58576        -1.01519        -0.01175         0.01670         0.02307        -0.00529         0.88700         1.42456         0.08770        -0.11655
4
step: 6  T=      445.680K  Ek=     0.230434  Ep=     1.430967  E_gap=    13.222204  Err=       0.0002216461476728  time_stamp= 1699036464.8361
B        -0.00406         0.01216         0.00386        -0.00044         0.00384         0.00138         1.65195        -1.67906        -0.30554         0.29648
H         1.23726        -0.06423        -0.01373        -0.01751        -0.02310        -0.00482        -2.88083         0.46897         0.11454        -0.09350
H        -0.61532         0.93873        -0.01385         0.00243        -0.04615        -0.00502         0.47137         0.01539         0.08925        -0.08489
H        -0.57840        -1.00487        -0.01380         0.01985         0.02808        -0.00493         0.75751         1.19469         0.10175        -0.11810
4
step: 7  T=      507.978K  Ek=     0.262645  Ep=     1.398328  E_gap=    13.233125  Err=       0.0001430925792400  time_stamp= 1699036465.2817
B        -0.00412         0.01357         0.00439         0.00019         0.00320         0.00126         1.87658        -1.89413        -0.33885         0.29776
H         1.22805        -0.07311        -0.01557        -0.02825        -0.02118        -0.00435        -2.72540         0.53470         0.12981        -0.09303
H        -0.61399         0.92028        -0.01579         0.00382        -0.04523        -0.00466         0.25525         0.46253         0.09596        -0.08415
H        -0.56989        -0.99272        -0.01569         0.02244         0.03209        -0.00451         0.59358         0.89690         0.11308        -0.12058
4
step: 8  T=      565.868K  Ek=     0.292576  Ep=     1.367950  E_gap=    13.253210  Err=       0.0002383623843385  time_stamp= 1699036465.7057
B        -0.00391         0.01472         0.00487         0.00089         0.00250         0.00114         2.07237        -2.04084        -0.36477         0.30035
H         1.21466        -0.08118        -0.01722        -0.03823        -0.01903        -0.00383        -2.48766         0.58706         0.14301        -0.09253
H        -0.61227         0.90254        -0.01758         0.00434        -0.04260        -0.00429         0.01775         0.91443         0.10005        -0.08247
H        -0.56046        -0.97920        -0.01741         0.02433         0.03484        -0.00407         0.39754         0.53934         0.12171        -0.12535
4
step: 9  T=      610.642K  Ek=     0.315727  Ep=     1.344428  E_gap=    13.285597  Err=       0.0002702981405722  time_stamp= 1699036466.0869
B        -0.00341         0.01557         0.00530         0.00166         0.00176         0.00100         2.21958        -2.11880        -0.38509         0.30432
H         1.19747        -0.08834        -0.01864        -0.04714        -0.01670        -0.00326        -2.16767         0.63136         0.15450        -0.09212
H        -0.61052         0.88621        -0.01922         0.00395        -0.03826        -0.00390        -0.22399         1.34925         0.10271        -0.08102
H        -0.55042        -0.96485        -0.01894         0.02542         0.03613        -0.00359         0.17209         0.13819         0.12788        -0.13118
4
step: 10  T=      635.741K  Ek=     0.328704  Ep=     1.331347  E_gap=    13.326323  Err=       0.0002478459775140  time_stamp= 1699036466.5077
B        -0.00258         0.01612         0.00567         0.00246         0.00100         0.00086         2.27940        -2.12006        -0.39933         0.30822
H         1.17695        -0.09454        -0.01982        -0.05465        -0.01421        -0.00265        -1.75311         0.67095         0.16346        -0.09178
H        -0.60911         0.87193        -0.02070         0.00266        -0.03234        -0.00350        -0.44644         1.74323         0.10451        -0.08094
H        -0.54012        -0.95029        -0.02028         0.02560         0.03584        -0.00309        -0.07985        -0.29413         0.13136        -0.13551
4
step: 1  T=      377.919K  Ek=     0.195399  Ep=     1.466852  E_gap=    13.373437  Err=       0.0000637617321830  time_stamp= 1699036618.6249
B        -0.00094         0.00227         0.00069        -0.00227         0.00561         0.00171         0.38160        -0.30277        -0.05827         0.29133
H         1.21666        -0.01142        -0.00246         0.03684        -0.02839        -0.00612        -2.51040         0.08634         0.01978        -0.09596
H        -0.60622         1.01955        -0.00246        -0.01354        -0.02915        -0.00612         1.04996        -1.58380         0.01913        -0.09608
H        -0.60041        -1.03242        -0.00246         0.00105        -0.00261        -0.00612         1.07884         1.80023         0.01936        -0.09929
4
step: 2  T=      338.429K  Ek=     0.174982  Ep=     1.487067  E_gap=    13.310715  Err=       0.0000855863918939  time_stamp= 1699036619.0309
B        -0.00182         0.00449         0.00137        -0.00209         0.00545         0.00168         0.64450        -0.58221        -0.11334         0.29119
H         1.22947        -0.02272        -0.00490         0.02681        -0.02791        -0.00601        -2.73152         0.16390         0.03913        -0.09539
H        -0.61083         1.00668        -0.00490        -0.00959        -0.03480        -0.00602         1.01032        -1.36833         0.03656        -0.09278
H        -0.59916        -1.03209        -0.00490         0.00518         0.00426        -0.00601         1.07670         1.78663         0.03765        -0.10302
4
step: 3  T=      328.684K  Ek=     0.169943  Ep=     1.492087  E_gap=    13.259583  Err=       0.0002264414176128  time_stamp= 1699036619.4538
B        -0.00261         0.00663         0.00203        -0.00181         0.00520         0.00163         0.89707        -0.84896        -0.16554         0.29202
H         1.23810        -0.03375        -0.00727         0.01608        -0.02714        -0.00582        -2.87134         0.23609         0.05833        -0.09473
H        -0.61389         0.99171        -0.00728        -0.00588        -0.03953        -0.00585         0.92986        -1.10112         0.05224        -0.08876
H        -0.59626        -1.02902        -0.00727         0.00924         0.01096        -0.00584         1.04440         1.71399         0.05497        -0.10853
4
step: 4  T=      347.268K  Ek=     0.179552  Ep=     1.482426  E_gap=    13.228810  Err=       0.0002183016290961  time_stamp= 1699036619.8635
B        -0.00327         0.00864         0.00268        -0.00145         0.00484         0.00156         1.15168        -1.12508        -0.21611         0.29368
H         1.24234        -0.04443        -0.00955         0.00494        -0.02609        -0.00556        -2.94487         0.31133         0.07779        -0.09421
H        -0.61553         0.97505        -0.00958        -0.00255        -0.04314        -0.00562         0.81127        -0.77998         0.06657        -0.08589
H        -0.59177        -1.02332        -0.00957         0.01312         0.01729        -0.00559         0.98192         1.59372         0.07175        -0.11358
4
step: 5  T=      388.911K  Ek=     0.201082  Ep=     1.460577  E_gap=    13.218785  Err=       0.0002820191655962  time_stamp= 1699036620.2581
B        -0.00376         0.01050         0.00329        -0.00099         0.00439         0.00148         1.40694        -1.41109        -0.26389         0.29534
H         1.24206        -0.05463        -0.01172        -0.00635        -0.02475        -0.00522        -2.95166         0.39144         0.09695        -0.09385
H        -0.61593         0.95720        -0.01177         0.00026        -0.04540        -0.00534         0.65772        -0.40491         0.07924        -0.08494
H        -0.58576        -1.01519        -0.01175         0.01670         0.02307        -0.00529         0.88700         1.42456         0.08770        -0.11655
4
step: 6  T=      445.680K  Ek=     0.230434  Ep=     1.430967  E_gap=    13.222204  Err=       0.0002216461476728  time_stamp= 1699036620.6749
B        -0.00406         0.01216         0.00386        -0.00044         0.00384         0.00138         1.65195        -1.67906        -0.30554         0.29648
H         1.23726        -0.06423        -0.01373        -0.01751        -0.02310        -0.00482        -2.88083         0.46897         0.11454        -0.09350
H        -0.61532         0.93873        -0.01385         0.00243        -0.04615        -0.00502         0.47137         0.01539         0.08925        -0.08489
H        -0.57840        -1.00487        -0.01380         0.01985         0.02808        -0.00493         0.75751         1.19469         0.10175        -0.11810
4
step: 7  T=      507.978K  Ek=     0.262645  Ep=     1.398328  E_gap=    13.233125  Err=       0.0001430925792400  time_stamp= 1699036621.0968
B        -0.00412         0.01357         0.00439         0.00019         0.00320         0.00126         1.87658        -1.89413        -0.33885         0.29776
H         1.22805        -0.07311        -0.01557        -0.02825        -0.02118        -0.00435        -2.72540         0.53470         0.12981        -0.09303
H        -0.61399         0.92028        -0.01579         0.00382        -0.04523        -0.00466         0.25525         0.46253         0.09596        -0.08415
H        -0.56989        -0.99272        -0.01569         0.02244         0.03209        -0.00451         0.59358         0.89690         0.11308        -0.12058
4
step: 8  T=      565.868K  Ek=     0.292576  Ep=     1.367950  E_gap=    13.253210  Err=       0.0002383623843385  time_stamp= 1699036621.5206
B        -0.00391         0.01472         0.00487         0.00089         0.00250         0.00114         2.07237        -2.04084        -0.36477         0.30035
H         1.21466        -0.08118        -0.01722        -0.03823        -0.01903        -0.00383        -2.48766         0.58706         0.14301        -0.09253
H        -0.61227         0.90254        -0.01758         0.00434        -0.04260        -0.00429         0.01775         0.91443         0.10005        -0.08247
H        -0.56046        -0.97920        -0.01741         0.02433         0.03484        -0.00407         0.39754         0.53934         0.12171        -0.12535
4
step: 9  T=      610.642K  Ek=     0.315727  Ep=     1.344428  E_gap=    13.285597  Err=       0.0002702981405722  time_stamp= 1699036621.9415
B        -0.00341         0.01557         0.00530         0.00166         0.00176         0.00100         2.21958        -2.11880        -0.38509         0.30432
H         1.19747        -0.08834        -0.01864        -0.04714        -0.01670        -0.00326        -2.16767         0.63136         0.15450        -0.09212
H        -0.61052         0.88621        -0.01922         0.00395        -0.03826        -0.00390        -0.22399         1.34925         0.10271        -0.08102
H        -0.55042        -0.96485        -0.01894         0.02542         0.03613        -0.00359         0.17209         0.13819         0.12788        -0.13118
4
step: 10  T=      635.741K  Ek=     0.328704  Ep=     1.331347  E_gap=    13.326323  Err=       0.0002478459775140  time_stamp= 1699036622.3648
B        -0.00258         0.01612         0.00567         0.00246         0.00100         0.00086         2.27940        -2.12006        -0.39933         0.30822
H         1.17695        -0.09454        -0.01982        -0.05465        -0.01421        -0.00265        -1.75311         0.67095         0.16346        -0.09178
H        -0.60911         0.87193        -0.02070         0.00266        -0.03234        -0.00350        -0.44644         1.74323         0.10451        -0.08094
H        -0.54012        -0.95029        -0.02028         0.02560         0.03584        -0.00309        -0.07985        -0.29413         0.13136        -0.13551
