4
step: 1  T=      380.212K  Ek=     0.196585  Ep=     1.468534  E_gap=    13.372578  Err=       0.0000749825112416  time_stamp= 1672955582.3349
 B        -0.00088         0.00225         0.00077        -0.00229         0.00569         0.00211         0.04226         1.20517         2.36790         0.29116
H         1.21635        -0.01132        -0.00288         0.03632        -0.02932        -0.00753        -2.36755         0.13388         0.29947        -0.09590
H        -0.60659         1.02025        -0.00304        -0.01375        -0.02745        -0.00754         1.01238        -1.77864        -0.70407        -0.09602
H        -0.60028        -1.03303        -0.00236         0.00195        -0.00426        -0.00753         1.90601         1.53808        -0.15719        -0.09923
4
step: 2  T=      364.127K  Ek=     0.188268  Ep=     1.489855  E_gap=    13.306663  Err=       0.0000984822038437  time_stamp= 1672955582.6680
 B        -0.00183         0.00455         0.00168        -0.00232         0.00560         0.00243         1.92966         0.82992         0.71434         0.29110
H         1.22904        -0.02301        -0.00577         0.02725        -0.02998        -0.00865        -2.18255         0.20668        -0.11924        -0.09547
H        -0.61135         1.00784        -0.00670        -0.00990        -0.03338        -0.00872         0.86602        -1.25828        -0.81509        -0.09262
H        -0.59808        -1.03362        -0.00559         0.00755         0.00331        -0.00866         1.56734         2.44748         0.16590        -0.10301
4
step: 3  T=      362.557K  Ek=     0.187457  Ep=     1.496260  E_gap=    13.251310  Err=       0.0002408141655185  time_stamp= 1672955582.9918
 B        -0.00274         0.00672         0.00271        -0.00227         0.00516         0.00241        -0.06598        -3.37830        -0.73712         0.29200
H         1.23814        -0.03496        -0.00931         0.01831        -0.02796        -0.00860        -2.33732         1.11849         0.41980        -0.09507
H        -0.61477         0.99340        -0.01081        -0.00529        -0.03934        -0.00867         1.47518        -1.99292         0.46668        -0.08834
H        -0.59398        -1.03054        -0.00892         0.01129         0.01197        -0.00860         0.75741         1.93071         0.02032        -0.10859
4
step: 4  T=      394.611K  Ek=     0.204030  Ep=     1.487866  E_gap=    13.218460  Err=       0.0002241960713507  time_stamp= 1672955583.3145
 B        -0.00364         0.00867         0.00361        -0.00203         0.00480         0.00232         0.73553         0.99119         1.28424         0.29369
H         1.24368        -0.04516        -0.01244         0.00693        -0.02618        -0.00825        -3.67002        -0.33140        -0.07879        -0.09488
H        -0.61574         0.97627        -0.01393        -0.00045        -0.04477        -0.00835         1.09981        -0.77471         0.56203        -0.08522
H        -0.58887        -1.02414        -0.01236         0.01533         0.01946        -0.00826         1.17748         2.01647        -0.65267        -0.11359
4
step: 5  T=      458.668K  Ek=     0.237150  Ep=     1.464524  E_gap=    13.206889  Err=       0.0003654130014115  time_stamp= 1672955583.6426
 B        -0.00437         0.01056         0.00457        -0.00158         0.00448         0.00223         3.80942        -1.58748         0.13140         0.29544
H         1.24368        -0.05599        -0.01587        -0.00533        -0.02592        -0.00791        -2.55521         0.25817         0.88990        -0.09485
H        -0.61504         0.95766        -0.01690         0.00227        -0.04782        -0.00808         0.77901        -0.48826         0.19318        -0.08418
H        -0.58180        -1.01492        -0.01622         0.02001         0.02573        -0.00794         1.16313         1.53694         0.04611        -0.11641
4
step: 6  T=      515.633K  Ek=     0.266603  Ep=     1.436039  E_gap=    13.208699  Err=       0.0002329994206174  time_stamp= 1672955583.9840
 B        -0.00491         0.01225         0.00540        -0.00087         0.00380         0.00212         1.82035        -2.26023         1.05481         0.29672
H         1.23942        -0.06615        -0.01842        -0.01668        -0.02370        -0.00743        -3.23459         0.79522        -0.92302        -0.09476
H        -0.61372         0.93818        -0.02005         0.00374        -0.04867        -0.00777         0.20903         0.09743         0.24574        -0.08419
H        -0.57309        -1.00344        -0.01943         0.02227         0.03166        -0.00751         0.07074         1.59840         0.69816        -0.11777
4
step: 7  T=      573.243K  Ek=     0.296390  Ep=     1.405435  E_gap=    13.221017  Err=       0.0002254752780590  time_stamp= 1672955584.3288
 B        -0.00506         0.01360         0.00626        -0.00004         0.00305         0.00198         2.25356        -1.70162        -1.27757         0.29820
H         1.23033        -0.07503        -0.02216        -0.02869        -0.02093        -0.00682        -3.11797         0.38746         0.78922        -0.09441
H        -0.61200         0.91877        -0.02303         0.00507        -0.04739        -0.00738         0.63320         0.73828         0.12614        -0.08361
H        -0.56406        -0.98956        -0.02196         0.02407         0.03564        -0.00703         0.57077         0.62446        -0.01300        -0.12019
4
step: 8  T=      611.217K  Ek=     0.316024  Ep=     1.377849  E_gap=    13.243190  Err=       0.0002519833729237  time_stamp= 1672955584.6583
 B        -0.00494         0.01469         0.00698         0.00074         0.00230         0.00163         1.67875        -3.49500        -1.32455         0.30103
H         1.21645        -0.08311        -0.02426        -0.03869        -0.01924        -0.00550        -2.19043        -0.47130         0.29421        -0.09397
H        -0.60950         0.90038        -0.02587         0.00453        -0.04314        -0.00619        -0.32085         1.82923         0.03231        -0.08200
H        -0.55401        -0.97482        -0.02477         0.02620         0.03771        -0.00583        -0.21058         0.73020         0.61060        -0.12506
4
step: 9  T=      650.561K  Ek=     0.336366  Ep=     1.359207  E_gap=    13.276907  Err=       0.0002984854839802  time_stamp= 1672955584.9920
 B        -0.00446         0.01544         0.00756         0.00162         0.00156         0.00122         3.77795         1.57370        -0.53287         0.30508
H         1.19935        -0.09109        -0.02621        -0.04774        -0.01744        -0.00390        -2.52238         1.14977         0.46694        -0.09357
H        -0.60788         0.88460        -0.02830         0.00301        -0.03818        -0.00475        -0.07623         1.22991         1.09648        -0.08052
H        -0.54364        -0.95910        -0.02661         0.02733         0.03892        -0.00445         0.45408         0.32735        -0.14428        -0.13099
4
step: 10  T=      695.757K  Ek=     0.359734  Ep=     1.351214  E_gap=    13.321243  Err=       0.0002798528139504  time_stamp= 1672955585.3340
 B        -0.00363         0.01594         0.00796         0.00257         0.00098         0.00062         1.82264        -1.09293        -1.21702         0.30911
H         1.17823        -0.09742        -0.02746        -0.05642        -0.01563        -0.00161        -1.90514         0.62542         0.58059        -0.09328
H        -0.60683         0.87003        -0.02940         0.00144        -0.03345        -0.00254        -1.02426         1.43977         1.28594        -0.08045
H        -0.53245        -0.94352        -0.02855         0.02743         0.03856        -0.00248        -0.05333        -0.33838         0.29248        -0.13538
4
step: 1  T=      380.209K  Ek=     0.196583  Ep=     1.468533  E_gap=    13.372654  Err=       0.0000709679806259  time_stamp= 1699036654.5157
B        -0.00088         0.00225         0.00077        -0.00229         0.00569         0.00211         0.04225         1.20516         2.36790         0.29127
H         1.21635        -0.01132        -0.00288         0.03632        -0.02932        -0.00753        -2.36762         0.13388         0.29947        -0.09595
H        -0.60659         1.02025        -0.00304        -0.01375        -0.02745        -0.00754         1.01242        -1.77870        -0.70407        -0.09606
H        -0.60028        -1.03303        -0.00236         0.00195        -0.00426        -0.00753         1.90605         1.53814        -0.15719        -0.09927
4
step: 2  T=      364.127K  Ek=     0.188268  Ep=     1.489851  E_gap=    13.306651  Err=       0.0000995286454187  time_stamp= 1699036654.9547
B        -0.00183         0.00455         0.00168        -0.00232         0.00560         0.00243         1.92966         0.82992         0.71434         0.29108
H         1.22903        -0.02301        -0.00577         0.02725        -0.02998        -0.00865        -2.18249         0.20668        -0.11924        -0.09546
H        -0.61135         1.00784        -0.00670        -0.00990        -0.03338        -0.00872         0.86598        -1.25822        -0.81509        -0.09261
H        -0.59807        -1.03361        -0.00559         0.00755         0.00332        -0.00866         1.56730         2.44742         0.16590        -0.10301
4
step: 3  T=      362.560K  Ek=     0.187458  Ep=     1.496257  E_gap=    13.251240  Err=       0.0002363288829950  time_stamp= 1699036655.3781
B        -0.00274         0.00672         0.00271        -0.00227         0.00516         0.00241        -0.06595        -3.37830        -0.73712         0.29188
H         1.23814        -0.03496        -0.00931         0.01831        -0.02796        -0.00860        -2.33722         1.11848         0.41980        -0.09503
H        -0.61477         0.99340        -0.01081        -0.00529        -0.03934        -0.00867         1.47511        -1.99281         0.46668        -0.08830
H        -0.59398        -1.03054        -0.00892         0.01129         0.01197        -0.00860         0.75735         1.93061         0.02032        -0.10855
4
step: 4  T=      394.613K  Ek=     0.204031  Ep=     1.487860  E_gap=    13.218412  Err=       0.0002211893114699  time_stamp= 1699036655.7815
B        -0.00364         0.00867         0.00361        -0.00203         0.00480         0.00232         0.73555         0.99119         1.28424         0.29361
H         1.24368        -0.04516        -0.01244         0.00693        -0.02618        -0.00825        -3.67002        -0.33141        -0.07879        -0.09486
H        -0.61574         0.97627        -0.01393        -0.00045        -0.04477        -0.00835         1.09979        -0.77470         0.56203        -0.08519
H        -0.58887        -1.02414        -0.01236         0.01533         0.01946        -0.00826         1.17747         2.01646        -0.65268        -0.11356
4
step: 5  T=      458.673K  Ek=     0.237152  Ep=     1.464519  E_gap=    13.206917  Err=       0.0003705798906014  time_stamp= 1699036656.1879
B        -0.00437         0.01056         0.00457        -0.00158         0.00448         0.00223         3.80941        -1.58748         0.13139         0.29548
H         1.24368        -0.05599        -0.01587        -0.00533        -0.02592        -0.00791        -2.55528         0.25817         0.88990        -0.09487
H        -0.61504         0.95766        -0.01690         0.00227        -0.04782        -0.00808         0.77906        -0.48833         0.19318        -0.08419
H        -0.58180        -1.01492        -0.01622         0.02001         0.02573        -0.00794         1.16317         1.53700         0.04611        -0.11642
4
step: 6  T=      515.643K  Ek=     0.266608  Ep=     1.436034  E_gap=    13.208777  Err=       0.0002314319087762  time_stamp= 1699036656.5843
B        -0.00491         0.01225         0.00540        -0.00087         0.00380         0.00212         1.82033        -2.26023         1.05480         0.29683
H         1.23942        -0.06615        -0.01842        -0.01668        -0.02370        -0.00743        -3.23461         0.79522        -0.92301        -0.09480
H        -0.61371         0.93818        -0.02005         0.00374        -0.04867        -0.00777         0.20906         0.09741         0.24574        -0.08423
H        -0.57309        -1.00343        -0.01943         0.02227         0.03166        -0.00751         0.07076         1.59842         0.69816        -0.11781
4
step: 7  T=      573.251K  Ek=     0.296394  Ep=     1.405430  E_gap=    13.221064  Err=       0.0002226645722148  time_stamp= 1699036657.0137
B        -0.00506         0.01360         0.00626        -0.00004         0.00305         0.00198         2.25356        -1.70163        -1.27757         0.29825
H         1.23033        -0.07503        -0.02216        -0.02869        -0.02093        -0.00682        -3.11786         0.38746         0.78922        -0.09442
H        -0.61200         0.91877        -0.02303         0.00507        -0.04739        -0.00738         0.63315         0.73838         0.12614        -0.08362
H        -0.56406        -0.98956        -0.02196         0.02407         0.03564        -0.00703         0.57072         0.62436        -0.01300        -0.12021
4
step: 8  T=      611.213K  Ek=     0.316022  Ep=     1.377847  E_gap=    13.243160  Err=       0.0002524660214634  time_stamp= 1699036657.4335
B        -0.00494         0.01469         0.00698         0.00074         0.00230         0.00163         1.67880        -3.49501        -1.32454         0.30097
H         1.21644        -0.08311        -0.02426        -0.03869        -0.01924        -0.00550        -2.19031        -0.47131         0.29421        -0.09395
H        -0.60950         0.90038        -0.02587         0.00453        -0.04314        -0.00619        -0.32094         1.82936         0.03231        -0.08198
H        -0.55401        -0.97482        -0.02477         0.02620         0.03771        -0.00583        -0.21065         0.73008         0.61060        -0.12504
4
step: 9  T=      650.550K  Ek=     0.336360  Ep=     1.359205  E_gap=    13.276834  Err=       0.0002974788670376  time_stamp= 1699036657.8552
B        -0.00446         0.01544         0.00756         0.00162         0.00156         0.00122         3.77800         1.57370        -0.53287         0.30499
H         1.19935        -0.09109        -0.02621        -0.04774        -0.01744        -0.00390        -2.52238         1.14976         0.46694        -0.09354
H        -0.60788         0.88460        -0.02830         0.00301        -0.03818        -0.00475        -0.07626         1.22993         1.09648        -0.08049
H        -0.54364        -0.95910        -0.02661         0.02733         0.03891        -0.00445         0.45406         0.32733        -0.14428        -0.13096
4
step: 10  T=      695.750K  Ek=     0.359731  Ep=     1.351215  E_gap=    13.321212  Err=       0.0002766914926593  time_stamp= 1699036658.2835
B        -0.00363         0.01594         0.00796         0.00257         0.00098         0.00062         1.82265        -1.09292        -1.21702         0.30908
H         1.17823        -0.09742        -0.02746        -0.05642        -0.01563        -0.00161        -1.90522         0.62542         0.58059        -0.09327
H        -0.60683         0.87003        -0.02940         0.00144        -0.03345        -0.00254        -1.02422         1.43970         1.28594        -0.08044
H        -0.53245        -0.94352        -0.02855         0.02743         0.03856        -0.00248        -0.05329        -0.33832         0.29248        -0.13537
